Version 4
SHEET 1 1780 1312
WIRE 752 -224 752 -256
WIRE 752 -160 512 -160
WIRE 992 -160 752 -160
WIRE 448 -112 368 -112
WIRE 512 -112 512 -160
WIRE 992 -96 992 -160
WIRE 1168 -96 1056 -96
WIRE 368 -16 368 -112
WIRE 1168 -16 1168 -96
WIRE 576 224 416 224
WIRE 704 224 576 224
WIRE 1008 272 880 272
WIRE 1152 272 1008 272
WIRE 1312 272 1152 272
WIRE 1600 272 1376 272
WIRE -240 320 -400 320
WIRE 240 320 -176 320
WIRE 704 320 240 320
WIRE 240 368 240 320
WIRE 240 368 -80 368
WIRE 416 368 416 224
WIRE 1152 368 1152 272
WIRE 240 432 240 368
WIRE -80 448 -80 368
WIRE 576 528 576 224
WIRE 880 528 576 528
WIRE 1008 528 1008 272
WIRE 1008 528 960 528
WIRE 1152 592 1152 448
WIRE 240 656 240 512
WIRE 672 656 240 656
WIRE 816 656 816 304
WIRE 816 656 752 656
WIRE 240 720 240 656
WIRE 416 736 416 448
WIRE -80 832 -80 512
WIRE 240 832 240 800
WIRE 240 832 -80 832
WIRE 416 832 416 800
WIRE 416 832 240 832
WIRE 1152 832 1152 656
WIRE 1152 832 416 832
WIRE 1600 832 1600 352
WIRE 1600 832 1152 832
WIRE -80 960 -80 832
FLAG -80 960 0
FLAG 368 -16 0
FLAG 1168 -16 0
SYMBOL diode 736 -224 R0
SYMATTR InstName D1
SYMATTR Value 1N4148
SYMBOL polcap 512 -128 R90
WINDOW 0 0 32 VBottom 2
WINDOW 3 32 32 VTop 2
SYMATTR InstName C1
SYMATTR Value 100µ
SYMATTR Description Capacitor
SYMATTR Type cap
SYMATTR SpiceLine V=20 Irms=2.0226 Rser=0.055 Lser=0 mfg="KEMET" pn="T521D107M020ATE055" type="Tantalum"
SYMBOL cap 1056 -112 R90
WINDOW 0 0 32 VBottom 2
WINDOW 3 32 32 VTop 2
SYMATTR InstName C2
SYMATTR Value 0.1µ
SYMATTR SpiceLine V=50 Irms=728m Rser=0.14361 Lser=0 mfg="KEMET" pn="C0603C104K5RAC" type="X7R"
SYMBOL polcap -176 304 R90
WINDOW 3 32 30 VTop 2
WINDOW 0 0 32 VBottom 2
SYMATTR Value 2.2µ
SYMATTR InstName C3
SYMATTR Description Capacitor
SYMATTR Type cap
SYMATTR SpiceLine V=6.3 Irms=0 Rser=9 Lser=0 mfg="AVX" pn="TAJA225M006" type="Tantalum"
SYMBOL cap -96 448 R0
SYMATTR InstName C4
SYMATTR Value 22µ
SYMATTR SpiceLine V=6.3 Irms=11.2 Rser=0.00392876 Lser=0 mfg="KEMET" pn="C1210C226K9PAC" type="X5R"
SYMBOL cap 400 736 R0
SYMATTR InstName C5
SYMATTR Value 22µ
SYMATTR SpiceLine V=10 Irms=9.76 Rser=0.00618974 Lser=0 mfg="KEMET" pn="C1206C226K8PAC" type="X5R"
SYMBOL polcap 1376 256 R90
WINDOW 3 32 32 VTop 2
WINDOW 0 0 32 VBottom 2
SYMATTR Value 2200µ
SYMATTR InstName C6
SYMATTR Description Capacitor
SYMATTR Type cap
SYMATTR SpiceLine V=63 Irms=2.475 Rser=0.021 Lser=11.4n mfg="Würth Elektronik" pn="860010781028 WCAP-ATG8 18x35,5" type="Al electrolytic"
SYMBOL cap 1136 592 R0
SYMATTR InstName C7
SYMATTR Value 0.1µ
SYMATTR SpiceLine V=4 Irms=1.62 Rser=0.00502825 Lser=0 mfg="KEMET" pn="C0201C104K7PAC" type="X5R"
SYMBOL res 224 704 R0
SYMATTR InstName R1
SYMATTR Value 100k
SYMBOL res 224 416 R0
SYMATTR InstName R2
SYMATTR Value 100k
SYMBOL res 400 352 R0
SYMATTR InstName R3
SYMATTR Value 4.7k
SYMBOL res 976 512 R90
WINDOW 0 0 56 VBottom 2
WINDOW 3 32 56 VTop 2
SYMATTR InstName R4
SYMATTR Value 100k
SYMBOL res 768 640 R90
WINDOW 0 0 56 VBottom 2
WINDOW 3 32 56 VTop 2
SYMATTR InstName R5
SYMATTR Value 100k
SYMBOL res 1136 352 R0
SYMATTR InstName R6
SYMATTR Value 10
SYMBOL voltage -384 320 R90
WINDOW 0 -32 56 VBottom 2
WINDOW 3 32 56 VTop 2
SYMATTR InstName V1
SYMBOL voltage 752 -352 R0
WINDOW 123 0 0 Left 0
WINDOW 39 0 0 Left 0
SYMATTR InstName V2
SYMATTR Value 12V
SYMBOL sym\\ZZZ\\Robertugo\\Lm386 752 272 R0
SYMATTR InstName U1
SYMBOL sym\\ZZZ\\Speaker\\visaton 1600 304 R0
SYMATTR InstName U3
TEXT -488 984 Left 2 !.tran 2
